%Chk=Fe_plus2_small_opt.chk
%Mem=3000MB
%NProcShared=2
# B3LYP/6-31G* Geom=PrintInputOrient Integral=(Grid=UltraFine) Opt
 
CLR
 
2  1
Fe         -0.011    0.015   -0.010
N           0.504    1.649    0.970
C           1.161    1.697    2.154
C           1.547    2.899    2.741
C           1.252    4.101    2.087
C           0.573    4.058    0.868
C           0.206    2.823    0.325
C          -0.523    2.646   -0.933
C          -1.006    3.688   -1.730
C          -1.699    3.392   -2.906
C          -1.897    2.053   -3.258
C          -1.395    1.054   -2.426
N          -0.717    1.334   -1.287
H          -1.519    0.008   -2.662
H          -2.430    1.784   -4.160
H          -2.079    4.190   -3.532
H          -0.850    4.718   -1.438
H           0.336    4.977    0.347
H           1.544    5.051    2.517
H           2.069    2.892    3.690
H           1.364    0.747    2.625
N          -1.804   -0.108    0.813
C          -2.325    0.757    1.717
C          -3.624    0.631    2.205
C          -4.424   -0.420    1.745
C          -3.896   -1.311    0.809
C          -2.586   -1.136    0.353
C          -1.925   -1.996   -0.632
C          -2.488   -3.150   -1.186
C          -1.761   -3.889   -2.121
C          -0.481   -3.455   -2.482
C           0.032   -2.299   -1.896
N          -0.670   -1.576   -0.990
H           1.015   -1.933   -2.152
H           0.112   -4.001   -3.205
H          -2.184   -4.785   -2.558
H          -3.477   -3.472   -0.890
H          -4.503   -2.126    0.436
H          -5.438   -0.542    2.105
H          -3.998    1.344    2.929
H          -1.678    1.552    2.055
N           0.838   -1.229    1.280
C           0.225   -1.843    2.321
C           0.883   -2.763    3.135
C           2.222   -3.070    2.868
C           2.858   -2.443    1.795
C           2.150   -1.525    1.014
C           2.707   -0.805   -0.134
C           4.042   -0.876   -0.544
C           4.460   -0.148   -1.659
C           3.527    0.641   -2.341
C           2.211    0.677   -1.887
N           1.796   -0.031   -0.807
H           1.465    1.275   -2.389
H           3.813    1.220   -3.210
H           5.492   -0.192   -1.987
H           4.751   -1.485    0.001
H           3.891   -2.673    1.570
H           2.758   -3.783    3.481
H           0.356   -3.228    3.958
H          -0.808   -1.581    2.499
 
 
